REMARK  Name = /home/zacharymartinez/to_del/TRILL/trill/data/6m2q_out/pockets/pocket2_atm.pdb
REMARK  7 active torsions:
REMARK  status: ('A' for Active; 'I' for Inactive)
REMARK    1  A    between atoms: _2  and  _4
REMARK    2  A    between atoms: _4  and  _19
REMARK    3  A    between atoms: _11  and  _22
REMARK    4  A    between atoms: _11  and  _25
REMARK    5  A    between atoms: _22  and  _28
REMARK    6  A    between atoms: _25  and  _48
REMARK    7  A    between atoms: _45  and  _51
REMARK                            x       y       z     vdW  Elec       q    Type
REMARK                         _______ _______ _______ _____ _____    ______ ____
ROOT
ATOM      1   CG PRO A 168     118.871  -5.245  66.526  0.00  0.00    +0.000 C 
ATOM      2   CD PRO A 168     119.097  -5.950  65.214  0.00  0.00    +0.000 C 
ENDROOT
BRANCH   2   4
ATOM      3   CA PRO A 168     116.924  -4.840  65.217  0.00  0.00    +0.000 C 
ATOM      4    N PRO A 168     117.805  -5.788  64.521  0.00  0.00    +0.000 NA
ENDBRANCH   2   4
TORSDOF 1
REMARK  Name = /home/zacharymartinez/to_del/TRILL/trill/data/6m2q_out/pockets/pocket2_atm.pdb
REMARK  7 active torsions:
REMARK  status: ('A' for Active; 'I' for Inactive)
REMARK    1  A    between atoms: _2  and  _4
REMARK    2  A    between atoms: _4  and  _19
REMARK    3  A    between atoms: _11  and  _22
REMARK    4  A    between atoms: _11  and  _25
REMARK    5  A    between atoms: _22  and  _28
REMARK    6  A    between atoms: _25  and  _48
REMARK    7  A    between atoms: _45  and  _51
REMARK                            x       y       z     vdW  Elec       q    Type
REMARK                         _______ _______ _______ _____ _____    ______ ____
ROOT
ATOM      1    N THR A 190     122.240  -9.270  69.183  0.00  0.00    +0.000 NA
ATOM      2    O GLN A 189     121.704  -9.898  71.273  0.00  0.00    +0.000 OA
ATOM      3    C GLN A 189     121.678 -10.099  70.056  0.00  0.00    +0.000 C 
ENDROOT
BRANCH   1   4
ATOM      4   CA THR A 190     122.937  -8.066  69.600  0.00  0.00    +0.000 C 
BRANCH   4   5
ATOM      5    C THR A 190     122.770  -7.019  68.511  0.00  0.00    +0.000 C 
ATOM      6    N ALA A 191     123.086  -5.775  68.859  0.00  0.00    +0.000 NA
ATOM      7    O THR A 190     122.353  -7.320  67.387  0.00  0.00    +0.000 OA
ENDBRANCH   4   5
ENDBRANCH   1   4
BRANCH   3   8
ATOM      8   CA GLN A 189     120.992 -11.318  69.453  0.00  0.00    +0.000 C 
BRANCH   8   9
ATOM      9   CB GLN A 189     119.843 -11.801  70.328  0.00  0.00    +0.000 C 
BRANCH   9  10
ATOM     10   CG GLN A 189     118.741 -10.762  70.498  0.00  0.00    +0.000 C 
BRANCH  10  13
ATOM     11  OE1 GLN A 189     117.335 -12.374  71.572  0.00  0.00    +0.000 OA
ATOM     12  NE2 GLN A 189     117.127 -10.232  72.220  0.00  0.00    +0.000 NA
ATOM     13   CD GLN A 189     117.669 -11.192  71.477  0.00  0.00    +0.000 C 
ENDBRANCH  10  13
ENDBRANCH   9  10
ENDBRANCH   8   9
ENDBRANCH   3   8
TORSDOF 6
REMARK  Name = /home/zacharymartinez/to_del/TRILL/trill/data/6m2q_out/pockets/pocket2_atm.pdb
REMARK  7 active torsions:
REMARK  status: ('A' for Active; 'I' for Inactive)
REMARK    1  A    between atoms: _2  and  _4
REMARK    2  A    between atoms: _4  and  _19
REMARK    3  A    between atoms: _11  and  _22
REMARK    4  A    between atoms: _11  and  _25
REMARK    5  A    between atoms: _22  and  _28
REMARK    6  A    between atoms: _25  and  _48
REMARK    7  A    between atoms: _45  and  _51
REMARK                            x       y       z     vdW  Elec       q    Type
REMARK                         _______ _______ _______ _____ _____    ______ ____
ROOT
ATOM      1   CA GLY A 143     109.941 -19.631  63.193  0.00  0.00    +0.000 C 
ATOM      2    N GLY A 143     110.025 -18.263  63.649  0.00  0.00    +0.000 NA
ENDROOT
TORSDOF 0
REMARK  Name = /home/zacharymartinez/to_del/TRILL/trill/data/6m2q_out/pockets/pocket2_atm.pdb
REMARK  7 active torsions:
REMARK  status: ('A' for Active; 'I' for Inactive)
REMARK    1  A    between atoms: _2  and  _4
REMARK    2  A    between atoms: _4  and  _19
REMARK    3  A    between atoms: _11  and  _22
REMARK    4  A    between atoms: _11  and  _25
REMARK    5  A    between atoms: _22  and  _28
REMARK    6  A    between atoms: _25  and  _48
REMARK    7  A    between atoms: _45  and  _51
REMARK                            x       y       z     vdW  Elec       q    Type
REMARK                         _______ _______ _______ _____ _____    ______ ____
ROOT
ATOM      1   CB CYS A 145     115.364 -19.449  61.654  0.00  0.00    +0.000 C 
ATOM      2   SG CYS A 145     115.371 -17.804  62.399  0.00  0.00    +0.000 S 
ENDROOT
TORSDOF 0
REMARK  Name = /home/zacharymartinez/to_del/TRILL/trill/data/6m2q_out/pockets/pocket2_atm.pdb
REMARK  7 active torsions:
REMARK  status: ('A' for Active; 'I' for Inactive)
REMARK    1  A    between atoms: _2  and  _4
REMARK    2  A    between atoms: _4  and  _19
REMARK    3  A    between atoms: _11  and  _22
REMARK    4  A    between atoms: _11  and  _25
REMARK    5  A    between atoms: _22  and  _28
REMARK    6  A    between atoms: _25  and  _48
REMARK    7  A    between atoms: _45  and  _51
REMARK                            x       y       z     vdW  Elec       q    Type
REMARK                         _______ _______ _______ _____ _____    ______ ____
ROOT
ATOM      1    O THR A  26     111.553 -23.331  65.289  0.00  0.00    +0.000 OA
ENDROOT
TORSDOF 0
REMARK  Name = /home/zacharymartinez/to_del/TRILL/trill/data/6m2q_out/pockets/pocket2_atm.pdb
REMARK  7 active torsions:
REMARK  status: ('A' for Active; 'I' for Inactive)
REMARK    1  A    between atoms: _2  and  _4
REMARK    2  A    between atoms: _4  and  _19
REMARK    3  A    between atoms: _11  and  _22
REMARK    4  A    between atoms: _11  and  _25
REMARK    5  A    between atoms: _22  and  _28
REMARK    6  A    between atoms: _25  and  _48
REMARK    7  A    between atoms: _45  and  _51
REMARK                            x       y       z     vdW  Elec       q    Type
REMARK                         _______ _______ _______ _____ _____    ______ ____
ROOT
ATOM      1   CE MET A  49     120.337 -16.242  68.002  0.00  0.00    +0.000 C 
ENDROOT
TORSDOF 0
REMARK  Name = /home/zacharymartinez/to_del/TRILL/trill/data/6m2q_out/pockets/pocket2_atm.pdb
REMARK  7 active torsions:
REMARK  status: ('A' for Active; 'I' for Inactive)
REMARK    1  A    between atoms: _2  and  _4
REMARK    2  A    between atoms: _4  and  _19
REMARK    3  A    between atoms: _11  and  _22
REMARK    4  A    between atoms: _11  and  _25
REMARK    5  A    between atoms: _22  and  _28
REMARK    6  A    between atoms: _25  and  _48
REMARK    7  A    between atoms: _45  and  _51
REMARK                            x       y       z     vdW  Elec       q    Type
REMARK                         _______ _______ _______ _____ _____    ______ ____
ROOT
ATOM      1   CE MET A 165     120.766 -13.105  65.379  0.00  0.00    +0.000 C 
ATOM      2   SD MET A 165     120.457 -14.558  64.374  0.00  0.00    +0.000 S 
ENDROOT
TORSDOF 0
REMARK  Name = /home/zacharymartinez/to_del/TRILL/trill/data/6m2q_out/pockets/pocket2_atm.pdb
REMARK  7 active torsions:
REMARK  status: ('A' for Active; 'I' for Inactive)
REMARK    1  A    between atoms: _2  and  _4
REMARK    2  A    between atoms: _4  and  _19
REMARK    3  A    between atoms: _11  and  _22
REMARK    4  A    between atoms: _11  and  _25
REMARK    5  A    between atoms: _22  and  _28
REMARK    6  A    between atoms: _25  and  _48
REMARK    7  A    between atoms: _45  and  _51
REMARK                            x       y       z     vdW  Elec       q    Type
REMARK                         _______ _______ _______ _____ _____    ______ ____
ROOT
ATOM      1   CB LEU A  27     113.974 -23.256  63.027  0.00  0.00    +0.000 C 
ENDROOT
TORSDOF 0
REMARK  Name = /home/zacharymartinez/to_del/TRILL/trill/data/6m2q_out/pockets/pocket2_atm.pdb
REMARK  7 active torsions:
REMARK  status: ('A' for Active; 'I' for Inactive)
REMARK    1  A    between atoms: _2  and  _4
REMARK    2  A    between atoms: _4  and  _19
REMARK    3  A    between atoms: _11  and  _22
REMARK    4  A    between atoms: _11  and  _25
REMARK    5  A    between atoms: _22  and  _28
REMARK    6  A    between atoms: _25  and  _48
REMARK    7  A    between atoms: _45  and  _51
REMARK                            x       y       z     vdW  Elec       q    Type
REMARK                         _______ _______ _______ _____ _____    ______ ____
ROOT
ATOM      1  CD2 LEU A  27     116.305 -22.701  63.742  0.00  0.00    +0.000 C 
ENDROOT
TORSDOF 0
REMARK  Name = /home/zacharymartinez/to_del/TRILL/trill/data/6m2q_out/pockets/pocket2_atm.pdb
REMARK  7 active torsions:
REMARK  status: ('A' for Active; 'I' for Inactive)
REMARK    1  A    between atoms: _2  and  _4
REMARK    2  A    between atoms: _4  and  _19
REMARK    3  A    between atoms: _11  and  _22
REMARK    4  A    between atoms: _11  and  _25
REMARK    5  A    between atoms: _22  and  _28
REMARK    6  A    between atoms: _25  and  _48
REMARK    7  A    between atoms: _45  and  _51
REMARK                            x       y       z     vdW  Elec       q    Type
REMARK                         _______ _______ _______ _____ _____    ______ ____
ROOT
ATOM      1  NE2 HIS A  41     117.663 -19.099  64.912  0.00  0.00    +0.000 NA
ATOM      2  CD2 HIS A  41     118.278 -19.635  66.018  0.00  0.00    +0.000 C 
ENDROOT
TORSDOF 0
REMARK  Name = /home/zacharymartinez/to_del/TRILL/trill/data/6m2q_out/pockets/pocket2_atm.pdb
REMARK  7 active torsions:
REMARK  status: ('A' for Active; 'I' for Inactive)
REMARK    1  A    between atoms: _2  and  _4
REMARK    2  A    between atoms: _4  and  _19
REMARK    3  A    between atoms: _11  and  _22
REMARK    4  A    between atoms: _11  and  _25
REMARK    5  A    between atoms: _22  and  _28
REMARK    6  A    between atoms: _25  and  _48
REMARK    7  A    between atoms: _45  and  _51
REMARK                            x       y       z     vdW  Elec       q    Type
REMARK                         _______ _______ _______ _____ _____    ______ ____
ROOT
ATOM      1  CG2 THR A  25     114.922 -23.111  68.324  0.00  0.00    +0.000 C 
ENDROOT
TORSDOF 0
REMARK  Name = /home/zacharymartinez/to_del/TRILL/trill/data/6m2q_out/pockets/pocket2_atm.pdb
REMARK  7 active torsions:
REMARK  status: ('A' for Active; 'I' for Inactive)
REMARK    1  A    between atoms: _2  and  _4
REMARK    2  A    between atoms: _4  and  _19
REMARK    3  A    between atoms: _11  and  _22
REMARK    4  A    between atoms: _11  and  _25
REMARK    5  A    between atoms: _22  and  _28
REMARK    6  A    between atoms: _25  and  _48
REMARK    7  A    between atoms: _45  and  _51
REMARK                            x       y       z     vdW  Elec       q    Type
REMARK                         _______ _______ _______ _____ _____    ______ ____
ROOT
ATOM      1    O ARG A 188     122.839 -11.483  67.376  0.00  0.00    +0.000 OA
ENDROOT
TORSDOF 0
REMARK  Name = /home/zacharymartinez/to_del/TRILL/trill/data/6m2q_out/pockets/pocket2_atm.pdb
REMARK  7 active torsions:
REMARK  status: ('A' for Active; 'I' for Inactive)
REMARK    1  A    between atoms: _2  and  _4
REMARK    2  A    between atoms: _4  and  _19
REMARK    3  A    between atoms: _11  and  _22
REMARK    4  A    between atoms: _11  and  _25
REMARK    5  A    between atoms: _22  and  _28
REMARK    6  A    between atoms: _25  and  _48
REMARK    7  A    between atoms: _45  and  _51
REMARK                            x       y       z     vdW  Elec       q    Type
REMARK                         _______ _______ _______ _____ _____    ______ ____
ROOT
ATOM      1  NE2 GLN A 192     123.663  -9.936  64.721  0.00  0.00    +0.000 NA
ENDROOT
TORSDOF 0
REMARK  Name = /home/zacharymartinez/to_del/TRILL/trill/data/6m2q_out/pockets/pocket2_atm.pdb
REMARK  7 active torsions:
REMARK  status: ('A' for Active; 'I' for Inactive)
REMARK    1  A    between atoms: _2  and  _4
REMARK    2  A    between atoms: _4  and  _19
REMARK    3  A    between atoms: _11  and  _22
REMARK    4  A    between atoms: _11  and  _25
REMARK    5  A    between atoms: _22  and  _28
REMARK    6  A    between atoms: _25  and  _48
REMARK    7  A    between atoms: _45  and  _51
REMARK                            x       y       z     vdW  Elec       q    Type
REMARK                         _______ _______ _______ _____ _____    ______ ____
ROOT
ATOM      1  OD1 ASN A 142     110.190 -14.235  66.146  0.00  0.00    +0.000 OA
ENDROOT
TORSDOF 0
REMARK  Name = /home/zacharymartinez/to_del/TRILL/trill/data/6m2q_out/pockets/pocket2_atm.pdb
REMARK  7 active torsions:
REMARK  status: ('A' for Active; 'I' for Inactive)
REMARK    1  A    between atoms: _2  and  _4
REMARK    2  A    between atoms: _4  and  _19
REMARK    3  A    between atoms: _11  and  _22
REMARK    4  A    between atoms: _11  and  _25
REMARK    5  A    between atoms: _22  and  _28
REMARK    6  A    between atoms: _25  and  _48
REMARK    7  A    between atoms: _45  and  _51
REMARK                            x       y       z     vdW  Elec       q    Type
REMARK                         _______ _______ _______ _____ _____    ______ ____
ROOT
ATOM      1   OG SER A  46     113.566 -17.453  73.549  0.00  0.00    +0.000 OA
ENDROOT
TORSDOF 0
REMARK  Name = /home/zacharymartinez/to_del/TRILL/trill/data/6m2q_out/pockets/pocket2_atm.pdb
REMARK  7 active torsions:
REMARK  status: ('A' for Active; 'I' for Inactive)
REMARK    1  A    between atoms: _2  and  _4
REMARK    2  A    between atoms: _4  and  _19
REMARK    3  A    between atoms: _11  and  _22
REMARK    4  A    between atoms: _11  and  _25
REMARK    5  A    between atoms: _22  and  _28
REMARK    6  A    between atoms: _25  and  _48
REMARK    7  A    between atoms: _45  and  _51
REMARK                            x       y       z     vdW  Elec       q    Type
REMARK                         _______ _______ _______ _____ _____    ______ ____
ROOT
ATOM      1    N SER A  46     116.010 -18.767  73.964  0.00  0.00    +0.000 NA
ATOM      2   CA SER A  46     115.978 -17.318  73.794  0.00  0.00    +0.000 C 
ATOM      3    O THR A  45     118.067 -18.917  73.060  0.00  0.00    +0.000 OA
ATOM      4    C THR A  45     117.105 -19.447  73.625  0.00  0.00    +0.000 C 
ENDROOT
TORSDOF 0
REMARK  Name = /home/zacharymartinez/to_del/TRILL/trill/data/6m2q_out/pockets/pocket2_atm.pdb
REMARK  7 active torsions:
REMARK  status: ('A' for Active; 'I' for Inactive)
REMARK    1  A    between atoms: _2  and  _4
REMARK    2  A    between atoms: _4  and  _19
REMARK    3  A    between atoms: _11  and  _22
REMARK    4  A    between atoms: _11  and  _25
REMARK    5  A    between atoms: _22  and  _28
REMARK    6  A    between atoms: _25  and  _48
REMARK    7  A    between atoms: _45  and  _51
REMARK                            x       y       z     vdW  Elec       q    Type
REMARK                         _______ _______ _______ _____ _____    ______ ____
ROOT
ATOM      1   CG MET A  49     119.158 -17.097  70.365  0.00  0.00    +0.000 C 
ATOM      2   CB MET A  49     119.657 -15.858  71.078  0.00  0.00    +0.000 C 
ENDROOT
TORSDOF 0
REMARK  Name = /home/zacharymartinez/to_del/TRILL/trill/data/6m2q_out/pockets/pocket2_atm.pdb
REMARK  7 active torsions:
REMARK  status: ('A' for Active; 'I' for Inactive)
REMARK    1  A    between atoms: _2  and  _4
REMARK    2  A    between atoms: _4  and  _19
REMARK    3  A    between atoms: _11  and  _22
REMARK    4  A    between atoms: _11  and  _25
REMARK    5  A    between atoms: _22  and  _28
REMARK    6  A    between atoms: _25  and  _48
REMARK    7  A    between atoms: _45  and  _51
REMARK                            x       y       z     vdW  Elec       q    Type
REMARK                         _______ _______ _______ _____ _____    ______ ____
ROOT
ATOM      1    N GLY A 170     114.961  -4.460  61.428  0.00  0.00    +0.000 NA
ATOM      2   CA GLY A 170     113.886  -5.063  60.672  0.00  0.00    +0.000 C 
ENDROOT
TORSDOF 0
REMARK  Name = /home/zacharymartinez/to_del/TRILL/trill/data/6m2q_out/pockets/pocket2_atm.pdb
REMARK  7 active torsions:
REMARK  status: ('A' for Active; 'I' for Inactive)
REMARK    1  A    between atoms: _2  and  _4
REMARK    2  A    between atoms: _4  and  _19
REMARK    3  A    between atoms: _11  and  _22
REMARK    4  A    between atoms: _11  and  _25
REMARK    5  A    between atoms: _22  and  _28
REMARK    6  A    between atoms: _25  and  _48
REMARK    7  A    between atoms: _45  and  _51
REMARK                            x       y       z     vdW  Elec       q    Type
REMARK                         _______ _______ _______ _____ _____    ______ ____
ROOT
ATOM      1    O LEU A 167     116.169  -6.391  63.110  0.00  0.00    +0.000 OA
ENDROOT
TORSDOF 0
REMARK  Name = /home/zacharymartinez/to_del/TRILL/trill/data/6m2q_out/pockets/pocket2_atm.pdb
REMARK  7 active torsions:
REMARK  status: ('A' for Active; 'I' for Inactive)
REMARK    1  A    between atoms: _2  and  _4
REMARK    2  A    between atoms: _4  and  _19
REMARK    3  A    between atoms: _11  and  _22
REMARK    4  A    between atoms: _11  and  _25
REMARK    5  A    between atoms: _22  and  _28
REMARK    6  A    between atoms: _25  and  _48
REMARK    7  A    between atoms: _45  and  _51
REMARK                            x       y       z     vdW  Elec       q    Type
REMARK                         _______ _______ _______ _____ _____    ______ ____
ROOT
ATOM      1    O PRO A 168     115.301  -3.190  64.667  0.00  0.00    +0.000 OA
ENDROOT
TORSDOF 0
REMARK  Name = /home/zacharymartinez/to_del/TRILL/trill/data/6m2q_out/pockets/pocket2_atm.pdb
REMARK  7 active torsions:
REMARK  status: ('A' for Active; 'I' for Inactive)
REMARK    1  A    between atoms: _2  and  _4
REMARK    2  A    between atoms: _4  and  _19
REMARK    3  A    between atoms: _11  and  _22
REMARK    4  A    between atoms: _11  and  _25
REMARK    5  A    between atoms: _22  and  _28
REMARK    6  A    between atoms: _25  and  _48
REMARK    7  A    between atoms: _45  and  _51
REMARK                            x       y       z     vdW  Elec       q    Type
REMARK                         _______ _______ _______ _____ _____    ______ ____
ROOT
ATOM      1  OE1 GLU A 166     111.991  -8.931  63.076  0.00  0.00    +0.000 OA
ENDROOT
TORSDOF 0
REMARK  Name = /home/zacharymartinez/to_del/TRILL/trill/data/6m2q_out/pockets/pocket2_atm.pdb
REMARK  7 active torsions:
REMARK  status: ('A' for Active; 'I' for Inactive)
REMARK    1  A    between atoms: _2  and  _4
REMARK    2  A    between atoms: _4  and  _19
REMARK    3  A    between atoms: _11  and  _22
REMARK    4  A    between atoms: _11  and  _25
REMARK    5  A    between atoms: _22  and  _28
REMARK    6  A    between atoms: _25  and  _48
REMARK    7  A    between atoms: _45  and  _51
REMARK                            x       y       z     vdW  Elec       q    Type
REMARK                         _______ _______ _______ _____ _____    ______ ____
ROOT
ATOM      1    N GLU A 166     116.758 -11.764  62.165  0.00  0.00    +0.000 NA
ENDROOT
TORSDOF 0
REMARK  Name = /home/zacharymartinez/to_del/TRILL/trill/data/6m2q_out/pockets/pocket2_atm.pdb
REMARK  7 active torsions:
REMARK  status: ('A' for Active; 'I' for Inactive)
REMARK    1  A    between atoms: _2  and  _4
REMARK    2  A    between atoms: _4  and  _19
REMARK    3  A    between atoms: _11  and  _22
REMARK    4  A    between atoms: _11  and  _25
REMARK    5  A    between atoms: _22  and  _28
REMARK    6  A    between atoms: _25  and  _48
REMARK    7  A    between atoms: _45  and  _51
REMARK                            x       y       z     vdW  Elec       q    Type
REMARK                         _______ _______ _______ _____ _____    ______ ____
ROOT
ATOM      1    O CYS A  44     117.363 -21.901  71.378  0.00  0.00    +0.000 OA
ENDROOT
TORSDOF 0
REMARK  Name = /home/zacharymartinez/to_del/TRILL/trill/data/6m2q_out/pockets/pocket2_atm.pdb
REMARK  7 active torsions:
REMARK  status: ('A' for Active; 'I' for Inactive)
REMARK    1  A    between atoms: _2  and  _4
REMARK    2  A    between atoms: _4  and  _19
REMARK    3  A    between atoms: _11  and  _22
REMARK    4  A    between atoms: _11  and  _25
REMARK    5  A    between atoms: _22  and  _28
REMARK    6  A    between atoms: _25  and  _48
REMARK    7  A    between atoms: _45  and  _51
REMARK                            x       y       z     vdW  Elec       q    Type
REMARK                         _______ _______ _______ _____ _____    ______ ____
ROOT
ATOM      1  OG1 THR A  25     115.015 -23.158  70.730  0.00  0.00    +0.000 OA
ENDROOT
TORSDOF 0
REMARK  Name = /home/zacharymartinez/to_del/TRILL/trill/data/6m2q_out/pockets/pocket2_atm.pdb
REMARK  7 active torsions:
REMARK  status: ('A' for Active; 'I' for Inactive)
REMARK    1  A    between atoms: _2  and  _4
REMARK    2  A    between atoms: _4  and  _19
REMARK    3  A    between atoms: _11  and  _22
REMARK    4  A    between atoms: _11  and  _25
REMARK    5  A    between atoms: _22  and  _28
REMARK    6  A    between atoms: _25  and  _48
REMARK    7  A    between atoms: _45  and  _51
REMARK                            x       y       z     vdW  Elec       q    Type
REMARK                         _______ _______ _______ _____ _____    ______ ____
ROOT
ATOM      1    O HIS A  41     118.957 -21.957  67.940  0.00  0.00    +0.000 OA
ENDROOT
TORSDOF 0
REMARK  Name = /home/zacharymartinez/to_del/TRILL/trill/data/6m2q_out/pockets/pocket2_atm.pdb
REMARK  7 active torsions:
REMARK  status: ('A' for Active; 'I' for Inactive)
REMARK    1  A    between atoms: _2  and  _4
REMARK    2  A    between atoms: _4  and  _19
REMARK    3  A    between atoms: _11  and  _22
REMARK    4  A    between atoms: _11  and  _25
REMARK    5  A    between atoms: _22  and  _28
REMARK    6  A    between atoms: _25  and  _48
REMARK    7  A    between atoms: _45  and  _51
REMARK                            x       y       z     vdW  Elec       q    Type
REMARK                         _______ _______ _______ _____ _____    ______ ____
ROOT
ATOM      1    O GLU A 166     117.003  -9.572  63.977  0.00  0.00    +0.000 OA
ENDROOT
TORSDOF 0
REMARK  Name = /home/zacharymartinez/to_del/TRILL/trill/data/6m2q_out/pockets/pocket2_atm.pdb
REMARK  7 active torsions:
REMARK  status: ('A' for Active; 'I' for Inactive)
REMARK    1  A    between atoms: _2  and  _4
REMARK    2  A    between atoms: _4  and  _19
REMARK    3  A    between atoms: _11  and  _22
REMARK    4  A    between atoms: _11  and  _25
REMARK    5  A    between atoms: _22  and  _28
REMARK    6  A    between atoms: _25  and  _48
REMARK    7  A    between atoms: _45  and  _51
REMARK                            x       y       z     vdW  Elec       q    Type
REMARK                         _______ _______ _______ _____ _____    ______ ____
ROOT
ATOM      1   CB GLU A 166     114.675 -10.415  62.279  0.00  0.00    +0.000 C 
ENDROOT
TORSDOF 0
REMARK  Name = /home/zacharymartinez/to_del/TRILL/trill/data/6m2q_out/pockets/pocket2_atm.pdb
REMARK  7 active torsions:
REMARK  status: ('A' for Active; 'I' for Inactive)
REMARK    1  A    between atoms: _2  and  _4
REMARK    2  A    between atoms: _4  and  _19
REMARK    3  A    between atoms: _11  and  _22
REMARK    4  A    between atoms: _11  and  _25
REMARK    5  A    between atoms: _22  and  _28
REMARK    6  A    between atoms: _25  and  _48
REMARK    7  A    between atoms: _45  and  _51
REMARK                            x       y       z     vdW  Elec       q    Type
REMARK                         _______ _______ _______ _____ _____    ______ ____
ROOT
ATOM      1  CD2 LEU A 167     120.922  -8.526  61.875  0.00  0.00    +0.000 C 
ENDROOT
TORSDOF 0
REMARK  Name = /home/zacharymartinez/to_del/TRILL/trill/data/6m2q_out/pockets/pocket2_atm.pdb
REMARK  7 active torsions:
REMARK  status: ('A' for Active; 'I' for Inactive)
REMARK    1  A    between atoms: _2  and  _4
REMARK    2  A    between atoms: _4  and  _19
REMARK    3  A    between atoms: _11  and  _22
REMARK    4  A    between atoms: _11  and  _25
REMARK    5  A    between atoms: _22  and  _28
REMARK    6  A    between atoms: _25  and  _48
REMARK    7  A    between atoms: _45  and  _51
REMARK                            x       y       z     vdW  Elec       q    Type
REMARK                         _______ _______ _______ _____ _____    ______ ____
ROOT
ATOM      1    O HIS A 164     118.283 -16.193  62.423  0.00  0.00    +0.000 OA
ENDROOT
TORSDOF 0
REMARK  Name = /home/zacharymartinez/to_del/TRILL/trill/data/6m2q_out/pockets/pocket2_atm.pdb
REMARK  7 active torsions:
REMARK  status: ('A' for Active; 'I' for Inactive)
REMARK    1  A    between atoms: _2  and  _4
REMARK    2  A    between atoms: _4  and  _19
REMARK    3  A    between atoms: _11  and  _22
REMARK    4  A    between atoms: _11  and  _25
REMARK    5  A    between atoms: _22  and  _28
REMARK    6  A    between atoms: _25  and  _48
REMARK    7  A    between atoms: _45  and  _51
REMARK                            x       y       z     vdW  Elec       q    Type
REMARK                         _______ _______ _______ _____ _____    ______ ____
ROOT
ATOM      1   CA MET A 165     118.417 -13.507  61.832  0.00  0.00    +0.000 C 
ENDROOT
TORSDOF 0
