REMARK  Name = /home/zacharymartinez/to_del/TRILL/trill/data/6m2q_out/pockets/pocket1_atm.pdb
REMARK  0 active torsions:
REMARK  status: ('A' for Active; 'I' for Inactive)
REMARK                            x       y       z     vdW  Elec       q    Type
REMARK                         _______ _______ _______ _____ _____    ______ ____
ROOT
ATOM      1  CG2 ILE A 213     110.444  -6.005  25.695  0.00  0.00    +0.000 C 
ENDROOT
TORSDOF 0
REMARK  Name = /home/zacharymartinez/to_del/TRILL/trill/data/6m2q_out/pockets/pocket1_atm.pdb
REMARK  0 active torsions:
REMARK  status: ('A' for Active; 'I' for Inactive)
REMARK                            x       y       z     vdW  Elec       q    Type
REMARK                         _______ _______ _______ _____ _____    ______ ____
ROOT
ATOM      1   CB SER A   1     103.552  -7.407  26.785  0.00  0.00    +0.000 C 
ATOM      2   CA SER A   1     103.698  -8.740  27.515  0.00  0.00    +0.000 C 
ATOM      3    N SER A   1     102.894  -9.765  26.870  0.00  0.00    +0.000 NA
ENDROOT
TORSDOF 0
REMARK  Name = /home/zacharymartinez/to_del/TRILL/trill/data/6m2q_out/pockets/pocket1_atm.pdb
REMARK  0 active torsions:
REMARK  status: ('A' for Active; 'I' for Inactive)
REMARK                            x       y       z     vdW  Elec       q    Type
REMARK                         _______ _______ _______ _____ _____    ______ ____
ROOT
ATOM      1  OD1 ASN A 214     106.060  -5.989  28.712  0.00  0.00    +0.000 OA
ENDROOT
TORSDOF 0
REMARK  Name = /home/zacharymartinez/to_del/TRILL/trill/data/6m2q_out/pockets/pocket1_atm.pdb
REMARK  0 active torsions:
REMARK  status: ('A' for Active; 'I' for Inactive)
REMARK                            x       y       z     vdW  Elec       q    Type
REMARK                         _______ _______ _______ _____ _____    ______ ____
ROOT
ATOM      1    O ILE A 213     108.246  -3.987  24.862  0.00  0.00    +0.000 OA
ENDROOT
TORSDOF 0
REMARK  Name = /home/zacharymartinez/to_del/TRILL/trill/data/6m2q_out/pockets/pocket1_atm.pdb
REMARK  0 active torsions:
REMARK  status: ('A' for Active; 'I' for Inactive)
REMARK                            x       y       z     vdW  Elec       q    Type
REMARK                         _______ _______ _______ _____ _____    ______ ____
ROOT
ATOM      1  ND2 ASN A 214     108.154  -5.493  29.347  0.00  0.00    +0.000 NA
ENDROOT
TORSDOF 0
REMARK  Name = /home/zacharymartinez/to_del/TRILL/trill/data/6m2q_out/pockets/pocket1_atm.pdb
REMARK  0 active torsions:
REMARK  status: ('A' for Active; 'I' for Inactive)
REMARK                            x       y       z     vdW  Elec       q    Type
REMARK                         _______ _______ _______ _____ _____    ______ ____
ROOT
ATOM      1   SG CYS A 300     111.425  -8.583  28.990  0.00  0.00    +0.000 S 
ATOM      2   CA CYS A 300     110.893 -11.262  28.333  0.00  0.00    +0.000 C 
ATOM      3   CB CYS A 300     111.712 -10.031  27.933  0.00  0.00    +0.000 C 
ENDROOT
TORSDOF 0
REMARK  Name = /home/zacharymartinez/to_del/TRILL/trill/data/6m2q_out/pockets/pocket1_atm.pdb
REMARK  0 active torsions:
REMARK  status: ('A' for Active; 'I' for Inactive)
REMARK                            x       y       z     vdW  Elec       q    Type
REMARK                         _______ _______ _______ _____ _____    ______ ____
ROOT
ATOM      1    O GLY A   2     105.587  -8.630  31.245  0.00  0.00    +0.000 OA
ATOM      2    C GLY A   2     104.874  -7.739  31.710  0.00  0.00    +0.000 C 
ATOM      3   CA GLY A   2     103.618  -7.265  31.008  0.00  0.00    +0.000 C 
ATOM      4    N PHE A   3     105.145  -7.137  32.870  0.00  0.00    +0.000 NA
ENDROOT
TORSDOF 0
REMARK  Name = /home/zacharymartinez/to_del/TRILL/trill/data/6m2q_out/pockets/pocket1_atm.pdb
REMARK  0 active torsions:
REMARK  status: ('A' for Active; 'I' for Inactive)
REMARK                            x       y       z     vdW  Elec       q    Type
REMARK                         _______ _______ _______ _____ _____    ______ ____
ROOT
ATOM      1    O CYS A 300     110.441 -12.186  26.178  0.00  0.00    +0.000 OA
ENDROOT
TORSDOF 0
REMARK  Name = /home/zacharymartinez/to_del/TRILL/trill/data/6m2q_out/pockets/pocket1_atm.pdb
REMARK  0 active torsions:
REMARK  status: ('A' for Active; 'I' for Inactive)
REMARK                            x       y       z     vdW  Elec       q    Type
REMARK                         _______ _______ _______ _____ _____    ______ ____
ROOT
ATOM      1    O GLN A 299     109.444 -12.970  29.887  0.00  0.00    +0.000 OA
ENDROOT
TORSDOF 0
REMARK  Name = /home/zacharymartinez/to_del/TRILL/trill/data/6m2q_out/pockets/pocket1_atm.pdb
REMARK  0 active torsions:
REMARK  status: ('A' for Active; 'I' for Inactive)
REMARK                            x       y       z     vdW  Elec       q    Type
REMARK                         _______ _______ _______ _____ _____    ______ ____
ROOT
ATOM      1   CG GLN A 299     109.238 -11.449  32.684  0.00  0.00    +0.000 C 
ATOM      2   CA GLN A 299     110.994 -13.002  31.712  0.00  0.00    +0.000 C 
ATOM      3   CB GLN A 299     110.671 -11.945  32.769  0.00  0.00    +0.000 C 
ENDROOT
TORSDOF 0
REMARK  Name = /home/zacharymartinez/to_del/TRILL/trill/data/6m2q_out/pockets/pocket1_atm.pdb
REMARK  0 active torsions:
REMARK  status: ('A' for Active; 'I' for Inactive)
REMARK                            x       y       z     vdW  Elec       q    Type
REMARK                         _______ _______ _______ _____ _____    ______ ____
ROOT
ATOM      1   SD MET A   6     107.307 -15.175  35.914  0.00  0.00    +0.000 S 
ATOM      2   CE MET A   6     106.520 -13.605  35.607  0.00  0.00    +0.000 C 
ENDROOT
TORSDOF 0
REMARK  Name = /home/zacharymartinez/to_del/TRILL/trill/data/6m2q_out/pockets/pocket1_atm.pdb
REMARK  0 active torsions:
REMARK  status: ('A' for Active; 'I' for Inactive)
REMARK                            x       y       z     vdW  Elec       q    Type
REMARK                         _______ _______ _______ _____ _____    ______ ____
ROOT
ATOM      1    O SER A   1     102.719  -9.469  29.585  0.00  0.00    +0.000 OA
ENDROOT
TORSDOF 0
REMARK  Name = /home/zacharymartinez/to_del/TRILL/trill/data/6m2q_out/pockets/pocket1_atm.pdb
REMARK  0 active torsions:
REMARK  status: ('A' for Active; 'I' for Inactive)
REMARK                            x       y       z     vdW  Elec       q    Type
REMARK                         _______ _______ _______ _____ _____    ______ ____
ROOT
ATOM      1   CG ARG A   4     103.544  -9.520  36.928  0.00  0.00    +0.000 C 
ATOM      2   CB ARG A   4     104.958 -10.021  37.175  0.00  0.00    +0.000 C 
ENDROOT
TORSDOF 0
REMARK  Name = /home/zacharymartinez/to_del/TRILL/trill/data/6m2q_out/pockets/pocket1_atm.pdb
REMARK  0 active torsions:
REMARK  status: ('A' for Active; 'I' for Inactive)
REMARK                            x       y       z     vdW  Elec       q    Type
REMARK                         _______ _______ _______ _____ _____    ______ ____
ROOT
ATOM      1  NH2 ARG A 298     114.583 -15.008  37.189  0.00  0.00    +0.000 NA
ENDROOT
TORSDOF 0
REMARK  Name = /home/zacharymartinez/to_del/TRILL/trill/data/6m2q_out/pockets/pocket1_atm.pdb
REMARK  0 active torsions:
REMARK  status: ('A' for Active; 'I' for Inactive)
REMARK                            x       y       z     vdW  Elec       q    Type
REMARK                         _______ _______ _______ _____ _____    ______ ____
ROOT
ATOM      1  NE2 GLN A 299     109.553 -10.860  35.020  0.00  0.00    +0.000 NA
ENDROOT
TORSDOF 0
REMARK  Name = /home/zacharymartinez/to_del/TRILL/trill/data/6m2q_out/pockets/pocket1_atm.pdb
REMARK  0 active torsions:
REMARK  status: ('A' for Active; 'I' for Inactive)
REMARK                            x       y       z     vdW  Elec       q    Type
REMARK                         _______ _______ _______ _____ _____    ______ ____
ROOT
ATOM      1   CB ASP A 295     115.723 -11.065  36.415  0.00  0.00    +0.000 C 
ATOM      2   CG ASP A 295     116.325 -11.760  37.621  0.00  0.00    +0.000 C 
ATOM      3  OD2 ASP A 295     116.478 -11.086  38.664  0.00  0.00    +0.000 OA
ENDROOT
TORSDOF 0
REMARK  Name = /home/zacharymartinez/to_del/TRILL/trill/data/6m2q_out/pockets/pocket1_atm.pdb
REMARK  0 active torsions:
REMARK  status: ('A' for Active; 'I' for Inactive)
REMARK                            x       y       z     vdW  Elec       q    Type
REMARK                         _______ _______ _______ _____ _____    ______ ____
ROOT
ATOM      1    O ASP A 295     114.118 -11.747  33.617  0.00  0.00    +0.000 OA
ENDROOT
TORSDOF 0
REMARK  Name = /home/zacharymartinez/to_del/TRILL/trill/data/6m2q_out/pockets/pocket1_atm.pdb
REMARK  0 active torsions:
REMARK  status: ('A' for Active; 'I' for Inactive)
REMARK                            x       y       z     vdW  Elec       q    Type
REMARK                         _______ _______ _______ _____ _____    ______ ____
ROOT
ATOM      1   NE ARG A   4     101.572  -8.538  38.093  0.00  0.00    +0.000 NA
ENDROOT
TORSDOF 0
REMARK  Name = /home/zacharymartinez/to_del/TRILL/trill/data/6m2q_out/pockets/pocket1_atm.pdb
REMARK  0 active torsions:
REMARK  status: ('A' for Active; 'I' for Inactive)
REMARK                            x       y       z     vdW  Elec       q    Type
REMARK                         _______ _______ _______ _____ _____    ______ ____
ROOT
ATOM      1   CA GLY A 302     109.735 -17.079  28.534  0.00  0.00    +0.000 C 
ENDROOT
TORSDOF 0
REMARK  Name = /home/zacharymartinez/to_del/TRILL/trill/data/6m2q_out/pockets/pocket1_atm.pdb
REMARK  0 active torsions:
REMARK  status: ('A' for Active; 'I' for Inactive)
REMARK                            x       y       z     vdW  Elec       q    Type
REMARK                         _______ _______ _______ _____ _____    ______ ____
ROOT
ATOM      1    O MET A   6     110.548 -14.089  40.015  0.00  0.00    +0.000 OA
ENDROOT
TORSDOF 0
REMARK  Name = /home/zacharymartinez/to_del/TRILL/trill/data/6m2q_out/pockets/pocket1_atm.pdb
REMARK  0 active torsions:
REMARK  status: ('A' for Active; 'I' for Inactive)
REMARK                            x       y       z     vdW  Elec       q    Type
REMARK                         _______ _______ _______ _____ _____    ______ ____
ROOT
ATOM      1  CD1 PHE A 291     112.578  -8.256  37.671  0.00  0.00    +0.000 C 
ATOM      2  CE1 PHE A 291     111.240  -8.344  38.019  0.00  0.00    +0.000 C 
ENDROOT
TORSDOF 0
REMARK  Name = /home/zacharymartinez/to_del/TRILL/trill/data/6m2q_out/pockets/pocket1_atm.pdb
REMARK  0 active torsions:
REMARK  status: ('A' for Active; 'I' for Inactive)
REMARK                            x       y       z     vdW  Elec       q    Type
REMARK                         _______ _______ _______ _____ _____    ______ ____
ROOT
ATOM      1    O PHE A   3     105.617  -6.526  35.693  0.00  0.00    +0.000 OA
ENDROOT
TORSDOF 0
REMARK  Name = /home/zacharymartinez/to_del/TRILL/trill/data/6m2q_out/pockets/pocket1_atm.pdb
REMARK  0 active torsions:
REMARK  status: ('A' for Active; 'I' for Inactive)
REMARK                            x       y       z     vdW  Elec       q    Type
REMARK                         _______ _______ _______ _____ _____    ______ ____
ROOT
ATOM      1  NE2 GLN A 127     114.446 -13.661  41.121  0.00  0.00    +0.000 NA
ENDROOT
TORSDOF 0
REMARK  Name = /home/zacharymartinez/to_del/TRILL/trill/data/6m2q_out/pockets/pocket1_atm.pdb
REMARK  0 active torsions:
REMARK  status: ('A' for Active; 'I' for Inactive)
REMARK                            x       y       z     vdW  Elec       q    Type
REMARK                         _______ _______ _______ _____ _____    ______ ____
ROOT
ATOM      1   CB MET A   6     108.292 -13.807  37.962  0.00  0.00    +0.000 C 
ENDROOT
TORSDOF 0
REMARK  Name = /home/zacharymartinez/to_del/TRILL/trill/data/6m2q_out/pockets/pocket1_atm.pdb
REMARK  0 active torsions:
REMARK  status: ('A' for Active; 'I' for Inactive)
REMARK                            x       y       z     vdW  Elec       q    Type
REMARK                         _______ _______ _______ _____ _____    ______ ____
ROOT
ATOM      1  NH1 ARG A 298     113.529 -16.502  35.799  0.00  0.00    +0.000 NA
ENDROOT
TORSDOF 0
REMARK  Name = /home/zacharymartinez/to_del/TRILL/trill/data/6m2q_out/pockets/pocket1_atm.pdb
REMARK  0 active torsions:
REMARK  status: ('A' for Active; 'I' for Inactive)
REMARK                            x       y       z     vdW  Elec       q    Type
REMARK                         _______ _______ _______ _____ _____    ______ ____
ROOT
ATOM      1  OE1 GLN A 299     107.499 -10.673  34.122  0.00  0.00    +0.000 OA
ENDROOT
TORSDOF 0
REMARK  Name = /home/zacharymartinez/to_del/TRILL/trill/data/6m2q_out/pockets/pocket1_atm.pdb
REMARK  0 active torsions:
REMARK  status: ('A' for Active; 'I' for Inactive)
REMARK                            x       y       z     vdW  Elec       q    Type
REMARK                         _______ _______ _______ _____ _____    ______ ____
ROOT
ATOM      1    N MET A   6     108.721 -11.998  39.528  0.00  0.00    +0.000 NA
ENDROOT
TORSDOF 0
REMARK  Name = /home/zacharymartinez/to_del/TRILL/trill/data/6m2q_out/pockets/pocket1_atm.pdb
REMARK  0 active torsions:
REMARK  status: ('A' for Active; 'I' for Inactive)
REMARK                            x       y       z     vdW  Elec       q    Type
REMARK                         _______ _______ _______ _____ _____    ______ ____
ROOT
ATOM      1    C ARG A 298     112.895 -14.333  31.021  0.00  0.00    +0.000 C 
ATOM      2    O ARG A 298     112.182 -15.012  30.275  0.00  0.00    +0.000 OA
ENDROOT
TORSDOF 0
REMARK  Name = /home/zacharymartinez/to_del/TRILL/trill/data/6m2q_out/pockets/pocket1_atm.pdb
REMARK  0 active torsions:
REMARK  status: ('A' for Active; 'I' for Inactive)
REMARK                            x       y       z     vdW  Elec       q    Type
REMARK                         _______ _______ _______ _____ _____    ______ ____
ROOT
ATOM      1    O VAL A 303     111.256 -19.661  31.900  0.00  0.00    +0.000 OA
ENDROOT
TORSDOF 0
REMARK  Name = /home/zacharymartinez/to_del/TRILL/trill/data/6m2q_out/pockets/pocket1_atm.pdb
REMARK  0 active torsions:
REMARK  status: ('A' for Active; 'I' for Inactive)
REMARK                            x       y       z     vdW  Elec       q    Type
REMARK                         _______ _______ _______ _____ _____    ______ ____
ROOT
ATOM      1   CG GLN A 127     112.841 -12.442  42.445  0.00  0.00    +0.000 C 
ENDROOT
TORSDOF 0
